%{%(meanVelocityForceEnabled%)
%:True
%{%(solver/SolverName%)
%:porousSimpleFoam
%:default
%[_header%]
FoamFile
{
    version     2.0;
    format      ascii;
    class       dictionary;
    object      fvOptions;
}
// * * * * * * * * * * * * * * * * * * * * * * * * * * * * * * * * * * * * * //

momentumSource
{
    type            meanVelocityForce;
    active          yes;
    meanVelocityForceCoeffs
    {
        selectionMode   all;
        fields          (U);
        direction       (%(meanVelocityForce/Direction%));
        Ubar            (%(meanVelocityForce/Ubar%));
        relaxation      %(meanVelocityForce/Relaxation%);
    }
}

//************************************************************************ //
%}
%}
