%{%(fvOptionsFilePresent%)
%:True
%[_header%]
FoamFile
{
    version     2.0;
    format      ascii;
    class       dictionary;
    object      fvOptions;
}
// * * * * * * * * * * * * * * * * * * * * * * * * * * * * * * * * * * * * * //

%{%(porousZonesPresent%)
%:True
%{%(solver/SolverName%)
%:porousSimpleFoam
%:default
%{%(porousZones%)
%{%(porousZones/%(0%)/PartNameList%)
%(0%)
{
    type            explicitPorositySource;
    active          yes;

    explicitPorositySourceCoeffs
    {
        selectionMode   cellZone;
        cellZone        %(0%);

        type            DarcyForchheimer;

        DarcyForchheimerCoeffs
        {
            d   d [0 -2 0 0 0 0 0] (%(porousZones/%(1%)/D%));
            f   f [0 -1 0 0 0 0 0] (%(porousZones/%(1%)/F%));

            coordinateSystem
            {
                type    cartesian;
                origin  (0 0 0);
                coordinateRotation
                {
                    type    axesRotation;
                    e1      (%(porousZones/%(1%)/e1%));
                    e3      (%(porousZones/%(1%)/e3%));
                }
            }
        }
    }
}

%}
%}
%}
%}

%{%(fvOptions%)
%(0%)
{
    type            meanVelocityForce;
    selectionMode   all;
%{%(fvOptions/%(0%)/Active%)
%:True
    active          yes;
%:default
    active          no;
%}

    meanVelocityForceCoeffs
    {
        selectionMode   all;
        fields          (U);
        direction       (%(fvOptions/%(0%)/DirectionTuple%));
        Ubar            (%(fvOptions/%(0%)/UbarTuple%));
        relaxation      %(fvOptions/%(0%)/Relaxation%);
    }
}

%}
%{%(scalarTransportFunctionsEnabled%)
%:True
%{%(scalarTransportFunctions%)
%(0%)
{
    type            semiImplicitSource;
    selectionMode   points;
    points
    (
        ( %(scalarTransportFunctions/%(0%)/InjectionPoint%) )
    );

    volumeMode      absolute;
    sources
    {
        %(scalarTransportFunctions/%(0%)/FieldName%)
        {
            explicit %(scalarTransportFunctions/%(0%)/InjectionRate%);
            implicit 0;
        }
    }

}

%}
%}

//************************************************************************ //
%}
